51
 i =       32, E =     -1739.8584738873
 Mo         4.6874361731        3.8684622643        5.5649999835
  S         5.2309230567        4.9509403720        3.6828837884
  S         5.2309230843        4.9509403939        7.4471162612
 Mo         5.9103225977        6.3424313518        5.5650000019
  S         7.1189413322        7.7789562467        4.0120526957
  S         7.1189413471        7.7789562382        7.1179473047
 Mo         7.4490905146        9.6340821959        5.5650000060
  S         8.8501804318       10.3471858136        3.8545682074
  S         8.8501804231       10.3471858153        7.2754318204
 Mo         8.7666100174       11.9189286649        5.5650000100
  S        10.2032109920       13.1286660366        4.0099600184
  S        10.2032109835       13.1286660538        7.1200399976
 Mo        10.8349572966       14.8967670728        5.5649999928
  S        11.6870322767       16.1844017511        3.6827392329
  S        11.6870322012       16.1844017414        7.4472608889
 Mo        12.3498718781       17.1971544548        5.5649998400
 Mo         7.0858280219        4.3999319553        5.5650000004
  S         8.8249631208        4.7768578242        3.9843037854
  S         8.8249631351        4.7768578071        7.1456961783
 Mo         8.7739830168        6.7714954870        5.5649999939
  S        10.3087159362        7.6516969892        3.9986838423
  S        10.3087159342        7.6516969707        7.1313161623
 Mo        10.3625757768        9.4772157380        5.5650000160
  S        11.9185923504       10.4348442899        4.0016405797
  S        11.9185923670       10.4348442887        7.1283594453
 Mo        11.9068377843       12.2085720031        5.5650000071
  S        13.6501759325       13.1676818286        3.9831181716
  S        13.6501759590       13.1676818842        7.1468818035
 Mo        13.1070349454       14.8579009292        5.5650000202
 Mo        10.6104929043        4.1815944069        5.5649999748
  S        11.9190286267        5.0519054451        3.8507629589
  S        11.9190286210        5.0519054331        7.2792369992
 Mo        11.9171766182        6.7834257191        5.5649999940
  S        13.5257079112        7.6498939130        3.9960689327
  S        13.5257078899        7.6498939335        7.1339310618
 Mo        13.4767981911        9.4700421416        5.5650000014
  S        14.9755855778       10.3522258989        3.8544330282
  S        14.9755855934       10.3522259065        7.2755669634
 Mo        15.0611650914       11.9217185814        5.5649999954
 Mo        13.2295884566        4.1847140019        5.5649999803
  S        15.0156956265        4.7809440907        3.9836637710
  S        15.0156956053        4.7809440866        7.1463362184
 Mo        15.0616437415        6.7769737470        5.5650000059
  S        16.7133538458        7.7943581147        4.0117011528
  S        16.7133538576        7.7943581270        7.1182988558
 Mo        16.3847321556        9.6449688243        5.5649999912
 Mo        16.7534134757        4.4086137204        5.5650000168
  S        18.6088212039        4.9697587346        3.6855392339
  S        18.6088211990        4.9697587682        7.4444608307
 Mo        17.9223487189        6.3573291326        5.5650000072
 Mo        19.1515046705        3.8819403993        5.5649999820
